data/radial_test/case38si.m
function mpc = case38si
%CASE38SI

%% MATPOWER Case Format : Version 2
mpc.version = '2';

%%-----  Power Flow Data  -----%%
%% system MVA base
mpc.baseMVA = 1;

%% bus data
%	bus_i	type	Pd	Qd	Gs	Bs	area	Vm	Va	baseKV	zone	Vmax	Vmin
mpc.bus = [
	1	3	0	0	0	0	1	1	0	12.66	1	1	1;
	2	1	0.1	0.06	0	0	1	1	0	12.66	1	1.1	0.9;
	3	1	0.09	0.04	0	0	1	1	0	12.66	1	1.1	0.9;
	4	1	0.12	0.08	0	0	1	1	0	12.66	1	1.1	0.9;
	5	1	0.06	0.03	0	0	1	1	0	12.66	1	1.1	0.9;
	6	1	0.06	0.02	0	0	1	1	0	12.66	1	1.1	0.9;
	7	1	0.2	0.1	0	0	1	1	0	12.66	1	1.1	0.9;
	8	1	0.2	0.1	0	0	1	1	0	12.66	1	1.1	0.9;
	9	1	0.06	0.02	0	0	1	1	0	12.66	1	1.1	0.9;
	10	1	0.06	0.02	0	0	1	1	0	12.66	1	1.1	0.9;
	11	1	0.045	0.03	0	0	1	1	0	12.66	1	1.1	0.9;
	12	1	0.06	0.035	0	0	1	1	0	12.66	1	1.1	0.9;
	13	1	0.06	0.035	0	0	1	1	0	12.66	1	1.1	0.9;
	14	1	0.12	0.08	0	0	1	1	0	12.66	1	1.1	0.9;
	15	1	0.06	0.01	0	0	1	1	0	12.66	1	1.1	0.9;
	16	1	0.06	0.02	0	0	1	1	0	12.66	1	1.1	0.9;
	17	1	0.06	0.02	0	0	1	1	0	12.66	1	1.1	0.9;
	18	1	0.09	0.04	0	0	1	1	0	12.66	1	1.1	0.9;
	19	1	0.09	0.04	0	0	1	1	0	12.66	1	1.1	0.9;
	20	1	0.09	0.04	0	0	1	1	0	12.66	1	1.1	0.9;
	21	1	0.09	0.04	0	0	1	1	0	12.66	1	1.1	0.9;
	22	1	0.09	0.04	0	0	1	1	0	12.66	1	1.1	0.9;
	23	1	0.09	0.05	0	0	1	1	0	12.66	1	1.1	0.9;
	24	1	0.42	0.2	0	0	1	1	0	12.66	1	1.1	0.9;
	25	1	0.42	0.2	0	0	1	1	0	12.66	1	1.1	0.9;
	26	1	0.06	0.025	0	0	1	1	0	12.66	1	1.1	0.9;
	27	1	0.06	0.025	0	0	1	1	0	12.66	1	1.1	0.9;
	28	1	0.06	0.02	0	0	1	1	0	12.66	1	1.1	0.9;
	29	1	0.12	0.07	0	0	1	1	0	12.66	1	1.1	0.9;
	30	1	0.2	0.6	0	0	1	1	0	12.66	1	1.1	0.9;
	31	1	0.15	0.07	0	0	1	1	0	12.66	1	1.1	0.9;
	32	1	0.21	0.1	0	0	1	1	0	12.66	1	1.1	0.9;
	33	1	0.06	0.04	0	0	1	1	0	12.66	1	1.1	0.9;
	34	1	0	0	0	0	1	1	0	12.66	1	1.1	0.9;
	35	1	0	0	0	0	1	1	0	12.66	1	1.1	0.9;
	36	1	0	0	0	0	1	1	0	12.66	1	1.1	0.9;
	37	1	0	0	0	0	1	1	0	12.66	1	1.1	0.9;
	38	1	0	0	0	0	1	1	0	12.66	1	1.1	0.9;
];

%% generator data
%	bus	Pg	Qg	Qmax	Qmin	Vg	mBase	status	Pmax	Pmin	Pc1	Pc2	Qc1min	Qc1max	Qc2min	Qc2max	ramp_agc	ramp_10	ramp_30	ramp_q	apf
mpc.gen = [
	1	0	0	10	-10	1	100	1	10	0	0	0	0	0	0	0	0	0	0	0	0;
];

%% branch data
%	fbus	tbus	r	x	b	rateA	rateB	rateC	ratio	angle	status	angmin	angmax
mpc.branch = [
	1	2	0.000575259116	0.000293244886	0	0	0	0	0	0	1	-360	360;
	2	3	0.00307595167	0.0015666764	0	0	0	0	0	0	1	-360	360;
	3	4	0.00228356656	0.00116299674	0	0	0	0	0	0	1	-360	360;
	4	5	0.00237777928	0.00121103899	0	0	0	0	0	0	1	-360	360;
	5	6	0.00510994811	0.00441115179	0	0	0	0	0	0	1	-360	360;
	6	7	0.00116798814	0.00386084969	0	0	0	0	0	0	1	-360	360;
	7	8	0.0044386045	0.00146684835	0	0	0	0	0	0	1	-360	360;
	8	9	0.00642643047	0.00461704714	0	0	0	0	0	0	1	-360	360;
	9	10	0.00651378001	0.00461704714	0	0	0	0	0	0	1	-360	360;
	10	11	0.00122663712	0.000405551438	0	0	0	0	0	0	1	-360	360;
	11	12	0.00233597628	0.000772419507	0	0	0	0	0	0	1	-360	360;
	12	13	0.00915922324	0.00720633708	0	0	0	0	0	0	1	-360	360;
	13	14	0.00337917936	0.00444796338	0	0	0	0	0	0	1	-360	360;
	14	15	0.00368739846	0.00328184702	0	0	0	0	0	0	1	-360	360;
	15	16	0.00465635443	0.00340039282	0	0	0	0	0	0	1	-360	360;
	16	17	0.00804239697	0.0107377542	0	0	0	0	0	0	1	-360	360;
	17	18	0.00456713311	0.00358133116	0	0	0	0	0	0	1	-360	360;
	2	19	0.00102323747	0.000976443077	0	0	0	0	0	0	1	-360	360;
	19	20	0.00938508419	0.00845668336	0	0	0	0	0	0	1	-360	360;
	20	21	0.00255497406	0.00298485858	0	0	0	0	0	0	1	-360	360;
	21	22	0.00442300637	0.00584805173	0	0	0	0	0	0	1	-360	360;
	3	23	0.0028151509	0.00192356167	0	0	0	0	0	0	1	-360	360;
	23	24	0.00560284909	0.00442425422	0	0	0	0	0	0	1	-360	360;
	24	25	0.00559037059	0.0043743402	0	0	0	0	0	0	1	-360	360;
	6	26	0.00126656834	0.000645138749	0	0	0	0	0	0	1	-360	360;
	26	27	0.00177319567	0.000902819893	0	0	0	0	0	0	1	-360	360;
	27	28	0.00660736881	0.00582559042	0	0	0	0	0	0	1	-360	360;
	28	29	0.00501760717	0.00437122057	0	0	0	0	0	0	1	-360	360;
	29	30	0.00316642084	0.00161284687	0	0	0	0	0	0	1	-360	360;
	30	31	0.00607952801	0.00600840053	0	0	0	0	0	0	1	-360	360;
	31	32	0.00193728802	0.00225798562	0	0	0	0	0	0	1	-360	360;
	32	33	0.00212758523	0.00330805188	0	0	0	0	0	0	1	-360	360;
	8	34	0.0124785058	0.0124785058	0	0	0	0	0	0	1	-360	360;
	9	35	0.0124785058	0.0124785058	0	0	0	0	0	0	1	-360	360;
	12	36	0.0124785058	0.0124785058	0	0	0	0	0	0	1	-360	360;
	18	37	0.00311962644	0.00311962644	0	0	0	0	0	0	1	-360	360;
	25	38	0.00311962644	0.00311962644	0	0	0	0	0	0	1	-360	360;
];

%%-----  OPF Data  -----%%
%% generator cost data
%	1	startup	shutdown	n	x1	y1	...	xn	yn
%	2	startup	shutdown	n	c(n-1)	...	c0
mpc.gencost = [
	2	0	0	3	0	20	0;
];
